# 
# Created by GaussView 5.0.9
#

#
#

@<TRIPOS>MOLECULE
Molecule Name
19 18
SMALL
NO_CHARGES


@<TRIPOS>ATOM
1 H1     2.0000     1.0000    -0.0000 H
2 C2     2.0000     2.0900     0.0000 C
3 H3     1.4860     2.4540     0.8900 H
4 H4     1.4860     2.4540    -0.8900 H
5 C5     3.4270     2.6410    -0.0000 C
6 O6     4.3910     1.8770    -0.0000 O
7 N7     3.5550     3.9700    -0.0000 N
8 H8     2.7330     4.5560    -0.0000 H
9 C9     4.8530     4.6140    -0.0000 C
10 H10     5.4080     4.3160     0.8900 H
11 H11     5.4080     4.3160    -0.8900 H
12 C12     4.6940     6.1280     0.0000 C
13 O13     3.5760     6.6370     0.0000 O
14 N14     5.8190     6.8470     0.0000 N
15 H15     6.7160     6.3820    -0.0000 H
16 C16     5.8010     8.2960     0.0000 C
17 H17     4.7690     8.6470     0.0000 H
18 H18     6.3100     8.6660     0.8900 H
19 H19     6.3100     8.6660    -0.8900 H
@<TRIPOS>BOND
1 1 2 1
2 2 3 1
3 2 4 1
4 2 5 1
5 5 6 2
6 5 7 Ar
7 7 8 1
8 7 9 1
9 9 10 1
10 9 11 1
11 9 12 1
12 12 13 2
13 12 14 Ar
14 14 15 1
15 14 16 1
16 16 17 1
17 16 18 1
18 16 19 1
